cellobiose
  MockSDF

 12 11  0  0  0  0            999 V2000
    1.2070   -0.2070    0.0000 O   0  0  0  0  0  0  0  0  0  0  0  0
    0.0000    0.5000    0.0000 C   0  0  0  0  0  0  0  0  0  0  0  0
   -1.2070   -0.2070    0.0000 O   0  0  0  0  0  0  0  0  0  0  0  0
    0.0000    1.9000    0.0000 C   0  0  0  0  0  0  0  0  0  0  0  0
    1.2070    2.6070    0.0000 O   0  0  0  0  0  0  0  0  0  0  0  0
   -1.2070    2.6070    0.0000 O   0  0  0  0  0  0  0  0  0  0  0  0
    2.4140    0.5000    0.0000 C   0  0  0  0  0  0  0  0  0  0  0  0
    3.6210   -0.2070    0.0000 O   0  0  0  0  0  0  0  0  0  0  0  0
    2.4140    1.9000    0.0000 C   0  0  0  0  0  0  0  0  0  0  0  0
    3.6210    2.6070    0.0000 O   0  0  0  0  0  0  0  0  0  0  0  0
    1.2070    4.0210    0.0000 C   0  0  0  0  0  0  0  0  0  0  0  0
    0.0000    4.7280    0.0000 O   0  0  0  0  0  0  0  0  0  0  0  0
  1  2  1  0  0  0  0
  2  3  1  0  0  0  0
  2  4  1  0  0  0  0
  4  5  1  0  0  0  0
  4  6  1  0  0  0  0
  2  7  1  0  0  0  0
  7  8  1  0  0  0  0
  7  9  1  0  0  0  0
  9 10  1  0  0  0  0
  5 11  1  0  0  0  0
 11 12  1  0  0  0  0
M  END
$$$$
